data_RbxBySi46-y
_audit_creation_method 'WinCSD program'
_audit_creation_date	2025-08-20
_audit_update_record	2025-08-20
_chemical_formula_sum	'Rb8 B7.96 Si38.03'
_chemical_name_systematic
;
Rb8 B7.96 Si38.03
;
_chemical_formula_weight	1838.210
_cell_length_a	 9.9588(2)
_cell_length_b	 9.9588(2)
_cell_length_c	 9.9588(2)
_cell_angle_alpha	90.000
_cell_angle_beta	90.000
_cell_angle_gamma	90.000
_cell_volume	987.7(1)
_cell_formula_units_Z	1
_symmetry_cell_setting	cubic
_symmetry_int_tables_number	223
_symmetry_space_group_name_H-M	'P m -3 n'
_symmetry_space_group_name_Hall	'-P_4n_2_3'

loop_
_symmetry_equiv_pos_site_id
_symmetry_equiv_pos_as_xyz
1 x,y,z
2 1/2-y,1/2+x,1/2+z
3 -x,-y,z
4 1/2+y,1/2-x,1/2+z
5 1/2+x,1/2-z,1/2+y
6 x,-y,-z
7 1/2+x,1/2+z,1/2-y
8 1/2+z,1/2+y,1/2-x
9 -x,y,-z
10 1/2-z,1/2+y,1/2+x
11 z,x,y
12 y,z,x
13 -y,-z,x
14 z,-x,-y
15 -y,z,-x
16 -z,-x,y
17 -z,x,-y
18 y,-z,-x
19 1/2+y,1/2+x,1/2-z
20 1/2-y,1/2-x,1/2-z
21 1/2-x,1/2+z,1/2+y
22 1/2-x,1/2-z,1/2-y
23 1/2+z,1/2-y,1/2+x
24 1/2-z,1/2-y,1/2-x
25 -x,-y,-z
26 1/2+y,1/2-x,1/2-z
27 x,y,-z
28 1/2-y,1/2+x,1/2-z
29 1/2-x,1/2+z,1/2-y
30 -x,y,z
31 1/2-x,1/2-z,1/2+y
32 1/2-z,1/2-y,1/2+x
33 x,-y,z
34 1/2+z,1/2-y,1/2-x
35 -z,-x,-y
36 -y,-z,-x
37 y,z,-x
38 -z,x,y
39 y,-z,x
40 z,x,-y
41 z,-x,y
42 -y,z,x
43 1/2-y,1/2-x,1/2+z
44 1/2+y,1/2+x,1/2+z
45 1/2+x,1/2-z,1/2-y
46 1/2+x,1/2+z,1/2+y
47 1/2-z,1/2+y,1/2-x
48 1/2+z,1/2+y,1/2+x

loop_
_atom_type_symbol
_atom_type_oxidation_number
_atom_type_radius_bond
Rb	?	?
Si	?	?
B	?	?


loop_
_atom_site_label
_atom_site_type_symbol
_atom_site_fract_x
_atom_site_fract_y
_atom_site_fract_z
_atom_site_occupancy
_atom_site_symmetry_multiplicity
_atom_site_Wyckoff_symbol
_atom_site_attached_hydrogens
_atom_site_calc_flag
_atom_site_thermal_displace_type
_atom_site_u_iso_or_equiv
Rb1 Rb  0.0000  0.0000  0.0000  1.000 2 a ? d Bani ?
Rb2 Rb  0.2500  0.5000  0.0000  1.000 6 d ? d Bani ?
Si1 Si  0.2500  0.0000  0.5000  1.000 6 c ? d Bani ?
Si21 Si  0.1911(2)  0.1912  0.1912  0.584(4) 16 i ? d Bani ?
Si22 B  0.1911(2)  0.1912  0.1912  0.415(4) 16 i ? d Bani ?
Si31 Si  0.0000  0.2972(2)  0.1242(2)  0.944(4) 24 k ? d Bani ?
Si32 B  0.0000  0.2972(2)  0.1242(2)  0.055(4) 24 k ? d Bani ?


loop_
_atom_site_aniso_label
_atom_site_aniso_U_11
_atom_site_aniso_U_22
_atom_site_aniso_U_33
_atom_site_aniso_U_12
_atom_site_aniso_U_13
_atom_site_aniso_U_23
Rb1  1.03(3)  1.03(3)  1.03(3)  0.00000  0.00000  0.00000
Rb2  1.22(5)  1.54(3)  1.54(3)  0.00000  0.00000  0.00000
Si1  1.5(2)  1.33(10)  1.33(10)  0.00000  0.00000  0.00000

loop_
_geom_bond_atom_site_label_1
_geom_bond_atom_site_label_2
_geom_bond_site_symmetry_1
_geom_bond_site_symmetry_2
_geom_bond_distance
_geom_bond_publ_flag
Rb1 Rb1 . .  3.209(2) yes
Rb1 Rb1 . .  3.298(2) yes
Rb2 Rb1 . .  3.436(1) yes
Rb2 Si1 . 11  3.5210(1) yes
Rb2 Rb1 . .  3.664(2) yes
Rb2 Rb1 . 12  3.771(2) yes
Rb2 Rb2 . 30  4.9794(1) yes
Si1 Rb1 . 11  2.376(2) yes
Si1 Rb1 . 11  3.642(2) yes

loop_
_geom_angle_atom_site_label_1
_geom_angle_atom_site_label_2
_geom_angle_atom_site_label_3
_geom_angle_site_symmetry_1
_geom_angle_site_symmetry_2
_geom_angle_site_symmetry_3
_geom_angle
_geom_angle_publ_flag
Rb2 Rb1 Rb2 . . 1_545 126.87(1) yes
Rb2 Rb1 Rb2 . . 11 66.42(1) yes
Rb2 Rb1 Rb2 . . 11_554 66.42(1) yes
Rb2 Rb1 Rb2 . . 12 66.42(1) yes
Rb2 Rb1 Rb2 . . 12_455 113.58(1) yes
Rb2 Rb1 Rb2 . . 37 66.42(1) yes
Rb2 Rb1 Rb2 . . 37_455 113.58(1) yes
Rb2 Rb1 Rb2 . . 30 53.13(1) yes
Rb2 Rb1 Rb2 . . 30_545 180.00(1) yes
Rb2 Rb1 Rb2 . . 44_445 113.58(1) yes
Rb2 Rb1 Rb2 . . 44_444 113.58(1) yes
Rb2 Rb1 Rb2 1_545 . 11 113.58(1) yes
Rb2 Rb1 Rb2 1_545 . 11_554 113.58(1) yes
Rb2 Rb1 Rb2 1_545 . 12 66.42(1) yes
Rb2 Rb1 Rb2 1_545 . 12_455 113.58(1) yes
Rb2 Rb1 Rb2 1_545 . 37 66.42(1) yes
Rb2 Rb1 Rb2 1_545 . 37_455 113.58(1) yes
Rb2 Rb1 Rb2 1_545 . 30 180.00(1) yes
Rb2 Rb1 Rb2 1_545 . 30_545 53.13(1) yes
Rb2 Rb1 Rb2 1_545 . 44_445 66.42(1) yes
Rb2 Rb1 Rb2 1_545 . 44_444 66.42(1) yes
Rb2 Rb1 Rb2 11 . 11_554 126.87(1) yes
Rb2 Rb1 Rb2 11 . 12 66.42(1) yes
Rb2 Rb1 Rb2 11 . 12_455 66.42(1) yes
Rb2 Rb1 Rb2 11 . 37 113.58(1) yes
Rb2 Rb1 Rb2 11 . 37_455 113.58(1) yes
Rb2 Rb1 Rb2 11 . 30 66.42(1) yes
Rb2 Rb1 Rb2 11 . 30_545 113.58(1) yes
Rb2 Rb1 Rb2 11 . 44_445 53.13(1) yes
Rb2 Rb1 Rb2 11 . 44_444 180.00(1) yes
Rb2 Rb1 Rb2 11_554 . 12 113.58(1) yes
Rb2 Rb1 Rb2 11_554 . 12_455 113.58(1) yes
Rb2 Rb1 Rb2 11_554 . 37 66.42(1) yes
Rb2 Rb1 Rb2 11_554 . 37_455 66.42(1) yes
Rb2 Rb1 Rb2 11_554 . 30 66.42(1) yes
Rb2 Rb1 Rb2 11_554 . 30_545 113.58(1) yes
Rb2 Rb1 Rb2 11_554 . 44_445 180.00(1) yes
Rb2 Rb1 Rb2 11_554 . 44_444 53.13(1) yes
Rb2 Rb1 Rb2 12 . 12_455 126.87(1) yes
Rb2 Rb1 Rb2 12 . 37 53.13(1) yes
Rb2 Rb1 Rb2 12 . 37_455 180.00(1) yes
Rb2 Rb1 Rb2 12 . 30 113.58(1) yes
Rb2 Rb1 Rb2 12 . 30_545 113.58(1) yes
Rb2 Rb1 Rb2 12 . 44_445 66.42(1) yes
Rb2 Rb1 Rb2 12 . 44_444 113.58(1) yes
Rb2 Rb1 Rb2 12_455 . 37 180.00(1) yes
Rb2 Rb1 Rb2 12_455 . 37_455 53.13(1) yes
Rb2 Rb1 Rb2 12_455 . 30 66.42(1) yes
Rb2 Rb1 Rb2 12_455 . 30_545 66.42(1) yes
Rb2 Rb1 Rb2 12_455 . 44_445 66.42(1) yes
Rb2 Rb1 Rb2 12_455 . 44_444 113.58(1) yes
Rb2 Rb1 Rb2 37 . 37_455 126.87(1) yes
Rb2 Rb1 Rb2 37 . 30 113.58(1) yes
Rb2 Rb1 Rb2 37 . 30_545 113.58(1) yes
Rb2 Rb1 Rb2 37 . 44_445 113.58(1) yes
Rb2 Rb1 Rb2 37 . 44_444 66.42(1) yes
Rb2 Rb1 Rb2 37_455 . 30 66.42(1) yes
Rb2 Rb1 Rb2 37_455 . 30_545 66.42(1) yes
Rb2 Rb1 Rb2 37_455 . 44_445 113.58(1) yes
Rb2 Rb1 Rb2 37_455 . 44_444 66.42(1) yes
Rb2 Rb1 Rb2 30 . 30_545 126.87(1) yes
Rb2 Rb1 Rb2 30 . 44_445 113.58(1) yes
Rb2 Rb1 Rb2 30 . 44_444 113.58(1) yes
Rb2 Rb1 Rb2 30_545 . 44_445 66.42(1) yes
Rb2 Rb1 Rb2 30_545 . 44_444 66.42(1) yes
Rb2 Rb2 Rb1 3_565 . 44_554 130.26(3) yes
Si1 Rb2 Si1 11 . 12 120.00(1) yes
Si1 Rb2 Si1 11 . 37 120.00(1) yes
Si1 Rb2 Si1 11 . 44_554 90.00(1) yes
Si1 Rb2 Rb1 11 . . 61.29(3) yes
Si1 Rb2 Rb1 11 . 27 61.29(3) yes
Si1 Rb2 Rb1 11 . 6_565 134.95(3) yes
Si1 Rb2 Rb1 11 . 33_565 134.95(3) yes
Si1 Rb2 Rb1 11 . 20 61.29(3) yes
Si1 Rb2 Rb1 11 . 43_554 61.29(3) yes
Si1 Rb2 Rb1 11 . 28 104.74(3) yes
Si1 Rb2 Rb1 11 . 2_554 104.74(3) yes
Si1 Rb2 Rb1 11 . 12 37.83(2) yes
Si1 Rb2 Rb1 11 . 18_565 127.83(2) yes
Si1 Rb2 Rb1 11 . 20 95.06(2) yes
Si1 Rb2 Rb1 11 . 43_554 95.06(2) yes
Si1 Rb2 Rb2 11 . 30 135.00(1) yes
Si1 Rb2 Rb2 11 . 30_655 45.00(1) yes
Si1 Rb2 Rb1 11 . . 71.57(1) yes
Si1 Rb2 Rb1 11 . 1_565 161.57(1) yes
Si1 Rb2 Rb1 11 . 44 71.57(1) yes
Si1 Rb2 Rb1 11 . 44_554 71.57(1) yes
Si1 Rb2 Si1 12 . 37 90.00(1) yes
Si1 Rb2 Si1 12 . 44_554 120.00(1) yes
Si1 Rb2 Rb1 12 . . 61.29(3) yes
Si1 Rb2 Rb1 12 . 27 104.74(3) yes
Si1 Rb2 Rb1 12 . 6_565 104.74(3) yes
Si1 Rb2 Rb1 12 . 33_565 61.29(3) yes
Si1 Rb2 Rb1 12 . 20 61.29(3) yes
Si1 Rb2 Rb1 12 . 43_554 134.95(3) yes
Si1 Rb2 Rb1 12 . 28 61.29(3) yes
Si1 Rb2 Rb1 12 . 2_554 134.95(3) yes
Si1 Rb2 Rb1 12 . 12 95.06(2) yes
Si1 Rb2 Rb1 12 . 18_565 95.06(2) yes
Si1 Rb2 Rb1 12 . 20 37.83(2) yes
Si1 Rb2 Rb1 12 . 43_554 127.83(2) yes
Si1 Rb2 Rb2 12 . 30 45.00(1) yes
Si1 Rb2 Rb2 12 . 30_655 135.00(1) yes
Si1 Rb2 Rb1 12 . . 71.57(1) yes
Si1 Rb2 Rb1 12 . 1_565 71.57(1) yes
Si1 Rb2 Rb1 12 . 44 71.57(1) yes
Si1 Rb2 Rb1 12 . 44_554 161.57(1) yes
Si1 Rb2 Si1 37 . 44_554 120.00(1) yes
Si1 Rb2 Rb1 37 . . 104.74(3) yes
Si1 Rb2 Rb1 37 . 27 61.29(3) yes
Si1 Rb2 Rb1 37 . 6_565 61.29(3) yes
Si1 Rb2 Rb1 37 . 33_565 104.74(3) yes
Si1 Rb2 Rb1 37 . 20 134.95(3) yes
Si1 Rb2 Rb1 37 . 43_554 61.29(3) yes
Si1 Rb2 Rb1 37 . 28 134.95(3) yes
Si1 Rb2 Rb1 37 . 2_554 61.29(3) yes
Si1 Rb2 Rb1 37 . 12 95.06(2) yes
Si1 Rb2 Rb1 37 . 18_565 95.06(2) yes
Si1 Rb2 Rb1 37 . 20 127.83(2) yes
Si1 Rb2 Rb1 37 . 43_554 37.83(2) yes
Si1 Rb2 Rb2 37 . 30 45.00(1) yes
Si1 Rb2 Rb2 37 . 30_655 135.00(1) yes
Si1 Rb2 Rb1 37 . . 71.57(1) yes
Si1 Rb2 Rb1 37 . 1_565 71.57(1) yes
Si1 Rb2 Rb1 37 . 44 161.57(1) yes
Si1 Rb2 Rb1 37 . 44_554 71.57(1) yes
Si1 Rb2 Rb1 44_554 . . 134.95(3) yes
Si1 Rb2 Rb1 44_554 . 27 134.95(3) yes
Si1 Rb2 Rb1 44_554 . 6_565 61.29(3) yes
Si1 Rb2 Rb1 44_554 . 33_565 61.29(3) yes
Si1 Rb2 Rb1 44_554 . 20 104.74(3) yes
Si1 Rb2 Rb1 44_554 . 43_554 104.74(3) yes
Si1 Rb2 Rb1 44_554 . 28 61.29(3) yes
Si1 Rb2 Rb1 44_554 . 2_554 61.29(3) yes
Si1 Rb2 Rb1 44_554 . 12 127.83(2) yes
Si1 Rb2 Rb1 44_554 . 18_565 37.83(2) yes
Si1 Rb2 Rb1 44_554 . 20 95.06(2) yes
Si1 Rb2 Rb1 44_554 . 43_554 95.06(2) yes
Si1 Rb2 Rb2 44_554 . 30 135.00(1) yes
Si1 Rb2 Rb2 44_554 . 30_655 45.00(1) yes
Si1 Rb2 Rb1 44_554 . . 161.57(1) yes
Si1 Rb2 Rb1 44_554 . 1_565 71.57(1) yes
Si1 Rb2 Rb1 44_554 . 44 71.57(1) yes
Si1 Rb2 Rb1 43_554 . 44_554 33.73(2) yes
Rb2 Rb2 Rb2 30 . 30_655 180.00(1) yes
Rb2 Rb2 Rb1 30 . . 63.43(1) yes
Rb2 Rb2 Rb1 30 . 1_565 63.43(1) yes
Rb2 Rb2 Rb1 30 . 44 116.57(1) yes
Rb2 Rb2 Rb1 30 . 44_554 116.57(1) yes
Rb2 Rb2 Rb1 30_655 . . 116.57(1) yes
Rb2 Rb2 Rb1 30_655 . 1_565 116.57(1) yes
Rb2 Rb2 Rb1 30_655 . 44 63.43(1) yes
Rb2 Rb2 Rb1 30_655 . 44_554 63.43(1) yes
Rb1 Rb2 Rb1 . . 1_565 126.87(1) yes
Rb1 Rb2 Rb1 . . 44 101.54(1) yes
Rb1 Rb2 Rb1 . . 44_554 101.54(1) yes
Rb1 Rb2 Rb1 1_565 . 44 101.54(1) yes
Rb1 Rb2 Rb1 1_565 . 44_554 101.54(1) yes
Rb1 Si1 Rb2 47_545 . 2_545 37.10(4) yes
Rb2 Si1 Rb2 11 . 12 120.00(1) yes
Rb2 Si1 Rb2 11 . 37_556 120.00(1) yes
Rb2 Si1 Rb2 11 . 44_445 90.00(1) yes
Rb2 Si1 Rb1 11 . . 61.29(3) yes
Rb2 Si1 Rb1 11 . 27_556 61.29(3) yes
Rb2 Si1 Rb1 11 . 6_556 104.74(3) yes
Rb2 Si1 Rb1 11 . 33 104.74(3) yes
Rb2 Si1 Rb1 11 . 20 61.29(3) yes
Rb2 Si1 Rb1 11 . 43 61.29(3) yes
Rb2 Si1 Rb1 11 . 28_545 134.95(3) yes
Rb2 Si1 Rb1 11 . 2_545 134.95(3) yes
Rb2 Si1 Rb2 12 . 37_556 90.00(1) yes
Rb2 Si1 Rb2 12 . 44_445 120.00(1) yes
Rb2 Si1 Rb1 12 . . 61.29(3) yes
Rb2 Si1 Rb1 12 . 27_556 134.95(3) yes
Rb2 Si1 Rb1 12 . 6_556 134.95(3) yes
Rb2 Si1 Rb1 12 . 33 61.29(3) yes
Rb2 Si1 Rb1 12 . 20 61.29(3) yes
Rb2 Si1 Rb1 12 . 43 104.74(3) yes
Rb2 Si1 Rb1 12 . 28_545 61.29(3) yes
Rb2 Si1 Rb1 12 . 2_545 104.74(3) yes
Rb2 Si1 Rb2 37_556 . 44_445 120.00(1) yes
Rb2 Si1 Rb1 37_556 . . 134.95(3) yes
Rb2 Si1 Rb1 37_556 . 27_556 61.29(3) yes
Rb2 Si1 Rb1 37_556 . 6_556 61.29(3) yes
Rb2 Si1 Rb1 37_556 . 33 134.95(3) yes
Rb2 Si1 Rb1 37_556 . 20 104.74(3) yes
Rb2 Si1 Rb1 37_556 . 43 61.29(3) yes
Rb2 Si1 Rb1 37_556 . 28_545 104.74(3) yes
Rb2 Si1 Rb1 37_556 . 2_545 61.29(3) yes
Rb2 Si1 Rb1 44_445 . . 104.74(3) yes
Rb2 Si1 Rb1 44_445 . 27_556 104.74(3) yes
Rb2 Si1 Rb1 44_445 . 6_556 61.29(3) yes
Rb2 Si1 Rb1 44_445 . 33 61.29(3) yes
Rb2 Si1 Rb1 44_445 . 20 134.95(3) yes
Rb2 Si1 Rb1 44_445 . 43 134.95(3) yes
Rb2 Si1 Rb1 44_445 . 28_545 61.29(3) yes
Rb2 Si1 Si1 12 . 12 128.34(7) yes
Rb1 Rb1 Rb1 . . 45 144.09(5) yes
Rb1 Rb1 Rb1 . . 20 144.09(5) yes
Rb1 Rb1 Rb1 . . 24 144.09(5) yes
Rb1 Rb1 Rb2 . . . 106.07(4) yes
Rb1 Rb1 Rb2 . . 11 106.07(4) yes
Rb1 Rb1 Rb2 . . 12 106.07(4) yes
Rb1 Rb1 Si1 . . . 106.07(4) yes
Rb1 Rb1 Si1 . . 11 106.07(4) yes
Rb1 Rb1 Si1 24 . 12 95.87(4) yes
Rb2 Rb1 Rb2 . . 11 112.64(4) yes
Rb2 Rb1 Rb2 . . 12 112.64(4) yes
Rb2 Rb1 Si1 . . . 147.85(5) yes
Rb2 Rb1 Si1 . . 11 57.43(3) yes
Rb2 Rb1 Si1 . . 12 57.43(3) yes
Rb2 Rb1 Rb2 11 . 12 112.64(4) yes
Rb2 Rb1 Si1 11 . . 57.43(3) yes
Rb2 Rb1 Si1 11 . 11 147.85(5) yes
Rb2 Rb1 Si1 11 . 12 57.43(3) yes
Rb2 Rb1 Si1 12 . . 57.43(3) yes
Rb2 Rb1 Si1 12 . 11 57.43(3) yes
Rb2 Rb1 Si1 12 . 12 147.85(5) yes
Si1 Rb1 Si1 . . 11 112.64(4) yes
Si1 Rb1 Si1 . . 12 112.64(4) yes
Si1 Rb1 Rb2 30 . 11 69.62(5) yes
Si1 Rb1 Rb1 12 . 27 121.80(6) yes
Si1 Rb1 Rb1 12 . . 170.89(6) yes
Si1 Rb1 Rb2 12 . . 71.97(4) yes
Si1 Rb1 Rb2 12 . 30 71.97(4) yes
Si1 Rb1 Rb1 12 . 26_455 72.69(4) yes
Si1 Rb1 Rb1 12 . 20 72.69(4) yes
Si1 Rb1 Rb1 12 . 11 116.20(5) yes
Si1 Rb1 Rb1 12 . 12 125.53(5) yes
Si1 Rb1 Rb1 12 . 38 116.20(5) yes
Si1 Rb1 Rb1 12 . 42 125.53(5) yes
Si1 Rb1 Rb2 27 . 11 172.83(6) yes
Rb1 Rb1 Rb2 . . . 113.78(4) yes
Rb1 Rb1 Rb2 . . 30 113.78(4) yes
Rb1 Rb1 Rb1 . . 26_455 103.14(4) yes
Rb1 Rb1 Rb1 . . 20 103.14(4) yes
Rb1 Rb1 Rb1 . . 11 55.42(3) yes
Rb1 Rb1 Rb1 . . 12 55.42(3) yes
Rb1 Rb1 Rb1 . . 38 55.42(3) yes
Rb1 Rb1 Rb1 . . 42 55.42(3) yes
Rb1 Rb1 Rb2 . . 11 105.52(4) yes
Rb2 Rb1 Rb2 . . 30 92.86(3) yes
Rb2 Rb1 Rb1 . . 26_455 141.95(5) yes
Rb2 Rb1 Rb1 . . 20 62.88(4) yes
Rb2 Rb1 Rb1 . . 11 113.69(4) yes
Rb2 Rb1 Rb1 . . 12 64.31(3) yes
Rb2 Rb1 Rb1 . . 38 153.41(5) yes
Rb2 Rb1 Rb1 . . 42 138.11(5) yes
Rb2 Rb1 Rb2 . . 11 115.51(4) yes
Rb2 Rb1 Rb1 30 . 26_455 62.88(4) yes
Rb2 Rb1 Rb1 30 . 20 141.95(5) yes
Rb2 Rb1 Rb1 30 . 11 153.41(5) yes
Rb2 Rb1 Rb1 30 . 12 138.11(5) yes
Rb2 Rb1 Rb1 30 . 38 113.69(4) yes
Rb2 Rb1 Rb1 30 . 42 64.31(3) yes
Rb2 Rb1 Rb2 42 . 11 106.15(4) yes
